Version 4
SHEET 1 1808 700
WIRE 384 16 352 16
WIRE 512 16 384 16
WIRE 672 16 608 16
WIRE 688 16 672 16
WIRE 768 16 688 16
WIRE 880 16 848 16
WIRE 1008 16 960 16
WIRE 1136 16 1008 16
WIRE 1152 16 1136 16
WIRE 1152 96 1152 16
WIRE 1008 112 1008 16
WIRE 352 128 352 16
WIRE 560 128 544 128
WIRE 592 128 592 64
WIRE 592 128 560 128
WIRE 688 128 688 16
WIRE 1008 208 1008 176
WIRE 352 336 352 208
WIRE 688 336 688 192
WIRE 688 336 352 336
WIRE 1008 336 1008 288
WIRE 1008 336 688 336
WIRE 1152 336 1152 176
WIRE 1152 336 1008 336
WIRE 352 384 352 336
WIRE 464 464 352 464
WIRE 640 464 544 464
WIRE 688 464 640 464
WIRE 1280 464 1072 464
WIRE 1472 464 1280 464
WIRE 352 512 352 464
WIRE 1072 512 1072 464
WIRE 1472 528 1472 464
WIRE 352 656 352 592
WIRE 640 656 352 656
WIRE 688 656 640 656
WIRE 1072 656 1072 592
WIRE 1472 656 1472 608
FLAG 352 384 0
FLAG 560 128 gate
FLAG 672 16 source
FLAG 384 16 in
FLAG 1136 16 out
FLAG 640 464 gate
FLAG 640 656 source
FLAG 1072 656 0
FLAG 1472 656 0
FLAG 1280 464 D1_loss
SYMBOL nmos 512 64 R270
WINDOW 0 71 26 VRight 2
WINDOW 3 31 -96 VRight 2
SYMATTR InstName M1
SYMATTR Value IRFZ48Z
SYMBOL voltage 352 112 R0
WINDOW 123 0 0 Left 0
WINDOW 39 0 0 Left 0
SYMATTR InstName Vi
SYMATTR Value 12
SYMBOL ind 752 32 R270
WINDOW 0 32 56 VTop 2
WINDOW 3 5 56 VBottom 2
SYMATTR InstName L1
SYMATTR Value 11.7µ
SYMBOL schottky 704 192 R180
WINDOW 0 24 64 Left 2
WINDOW 3 24 0 Left 2
SYMATTR InstName D1
SYMATTR Value RBR20BM30A
SYMATTR Description Diode
SYMATTR Type diode
SYMBOL cap 992 112 R0
SYMATTR InstName C1
SYMATTR Value 75µ
SYMBOL res 1136 80 R0
SYMATTR InstName RL
SYMATTR Value 0.25
SYMBOL voltage 352 496 R0
WINDOW 123 0 0 Left 0
WINDOW 39 0 0 Left 0
SYMATTR InstName Vgate
SYMATTR Value PULSE(0 15 0 10n 10n {D/f} {1/f})
SYMBOL res 560 448 R90
WINDOW 0 0 56 VBottom 2
WINDOW 3 32 56 VTop 2
SYMATTR InstName Rgate
SYMATTR Value 10
SYMBOL res 976 0 R90
WINDOW 0 0 56 VBottom 2
WINDOW 3 32 56 VTop 2
SYMATTR InstName Rdcr
SYMATTR Value 4m
SYMBOL res 1024 304 R180
WINDOW 0 36 76 Left 2
WINDOW 3 36 40 Left 2
SYMATTR InstName Resr
SYMATTR Value 10m
SYMBOL Misc\\Epoly 1072 496 R0
SYMATTR InstName E1
SYMATTR Value value={-V(source)*I(D1)}
SYMBOL res 1456 512 R0
SYMATTR InstName R1
SYMATTR Value 10k
TEXT 392 -96 Left 2 !.param f=100k\n.param D=0.46
TEXT 672 -80 Left 2 !.tran 0 500u 400u uic
TEXT 1360 40 Left 2 !.measure Ii_avg  avg -I(Vi)\n.measure Io_avg avg I(RL)\n.measure Vi_avg avg V(in)\n.measure Vo_avg avg V(out)\n.measure Pin param Vi_avg*Ii_avg\n.measure Po param Vo_avg*Io_avg\n.measure Eff param Po*100/Pin\n.measure D1_avg_loss avg V(D1_loss)
