Version 4
SHEET 1 1816 752
WIRE 144 16 112 16
WIRE 272 16 144 16
WIRE 544 16 368 16
WIRE 592 16 544 16
WIRE 768 16 592 16
WIRE 880 16 848 16
WIRE 1008 16 960 16
WIRE 1136 16 1008 16
WIRE 1152 16 1136 16
WIRE 592 96 592 16
WIRE 752 96 592 96
WIRE 1152 96 1152 16
WIRE 592 112 592 96
WIRE 1008 112 1008 16
WIRE 112 128 112 16
WIRE 304 128 256 128
WIRE 352 128 352 64
WIRE 352 128 304 128
WIRE 752 128 752 96
WIRE 480 192 432 192
WIRE 544 192 480 192
WIRE 1008 208 1008 176
WIRE 592 240 592 208
WIRE 752 240 752 192
WIRE 752 240 592 240
WIRE 112 336 112 208
WIRE 592 336 592 240
WIRE 592 336 112 336
WIRE 1008 336 1008 288
WIRE 1008 336 592 336
WIRE 1152 336 1152 176
WIRE 1152 336 1008 336
WIRE 112 384 112 336
WIRE 880 496 752 496
WIRE 1040 496 960 496
WIRE 1072 496 1040 496
WIRE 1456 496 1248 496
WIRE 1648 496 1456 496
WIRE 576 512 112 512
WIRE 1040 528 752 528
WIRE 1072 528 1040 528
WIRE 576 544 544 544
WIRE 1248 544 1248 496
WIRE 112 560 112 512
WIRE 880 560 752 560
WIRE 1040 560 960 560
WIRE 1072 560 1040 560
WIRE 1648 560 1648 496
WIRE 544 592 544 544
WIRE 576 592 544 592
WIRE 816 592 752 592
WIRE 816 640 816 592
WIRE 1248 688 1248 624
WIRE 1648 688 1648 640
WIRE 112 704 112 640
WIRE 544 704 544 592
FLAG 112 384 0
FLAG 304 128 gate1
FLAG 544 16 source
FLAG 144 16 in
FLAG 1136 16 out
FLAG 1248 688 0
FLAG 1648 688 0
FLAG 1456 496 M2_loss
FLAG 480 192 gate2
FLAG 112 704 0
FLAG 544 704 0
FLAG 816 640 0
FLAG 1040 496 gate1
FLAG 1040 528 source
FLAG 1040 560 gate2
SYMBOL nmos 272 64 R270
WINDOW 0 71 26 VRight 2
WINDOW 3 31 -96 VRight 2
SYMATTR InstName M1
SYMATTR Value IRFZ48Z
SYMBOL voltage 112 112 R0
WINDOW 123 0 0 Left 0
WINDOW 39 0 0 Left 0
SYMATTR InstName Vi
SYMATTR Value 12
SYMBOL ind 752 32 R270
WINDOW 0 32 56 VTop 2
WINDOW 3 5 56 VBottom 2
SYMATTR InstName L1
SYMATTR Value 11.7µ
SYMBOL cap 992 112 R0
SYMATTR InstName C1
SYMATTR Value 75µ
SYMBOL res 1136 80 R0
SYMATTR InstName RL
SYMATTR Value 0.25
SYMBOL voltage 112 544 R0
WINDOW 123 0 0 Left 0
WINDOW 39 0 0 Left 0
SYMATTR InstName Vgate
SYMATTR Value PULSE(0 5 0 10n 10n {D/f} {1/f})
SYMBOL res 976 0 R90
WINDOW 0 0 56 VBottom 2
WINDOW 3 32 56 VTop 2
SYMATTR InstName Rdcr
SYMATTR Value 4m
SYMBOL res 1024 304 R180
WINDOW 0 36 76 Left 2
WINDOW 3 36 40 Left 2
SYMATTR InstName Resr
SYMATTR Value 10m
SYMBOL Misc\\Epoly 1248 528 R0
WINDOW 3 -75 207 Left 2
SYMATTR InstName E1
SYMATTR Value value={V(source)*(Id(M2) - I(D1))}
SYMBOL res 1632 544 R0
SYMATTR InstName R1
SYMATTR Value 10k
SYMBOL nmos 544 112 R0
WINDOW 0 89 44 Right 2
WINDOW 3 160 77 Right 2
SYMATTR InstName M2
SYMATTR Value IRFZ48Z
SYMBOL MyDriverHB 688 544 R0
WINDOW 3 -66 104 Bottom 2
WINDOW 123 -51 134 Bottom 2
WINDOW 0 -91 -106 Bottom 2
WINDOW 38 -37 -76 Bottom 2
SYMATTR Value2 Tau=120n
SYMATTR InstName U1
SYMBOL res 976 480 R90
WINDOW 0 7 119 VBottom 2
WINDOW 3 -15 7 VTop 2
SYMATTR InstName Rg1
SYMATTR Value 5
SYMBOL res 976 544 R90
WINDOW 0 51 112 VBottom 2
WINDOW 3 32 56 VTop 2
SYMATTR InstName Rg2
SYMATTR Value 5
SYMBOL schottky 768 192 R180
WINDOW 0 24 64 Left 2
WINDOW 3 -166 19 Left 2
SYMATTR InstName D1
SYMATTR Value RBR5LAM30B
SYMATTR Description Diode
SYMATTR Type diode
TEXT 392 -96 Left 2 !.param f=100k\n.param D=0.46
TEXT 672 -80 Left 2 !.tran 0 500u 400u uic
TEXT 1360 40 Left 2 !.measure Ii_avg  avg -I(Vi)\n.measure Io_avg avg I(RL)\n.measure Vi_avg avg V(in)\n.measure Vo_avg avg V(out)\n.measure Pin param Vi_avg*Ii_avg\n.measure Po param Vo_avg*Io_avg\n.measure Eff param Po*100/Pin\n.measure M2_avg_loss avg V(M2_loss)
